<?xml version="1.0" encoding="UTF-8"?>

<configuration>
    <input>
        <net-file value="../5x5_TLS.net.xml"/>
        <route-files value="./flows/5x5_no_left_turns_periodic_10.xml"/>
    </input>
    <time>
        <begin value="0"/>
        <end value="60000"/>
    </time>
    <time-to-teleport value="200"/>
    <!-- If the value is not positive, teleporting due to grid-lock is disabled. -->
</configuration>