<?xml version="1.0" encoding="UTF-8"?>

<!-- generated on 2024-01-08 21:23:20 by Eclipse SUMO duarouter Version 1.19.0
<configuration xmlns:xsi="http://www.w3.org/2001/XMLSchema-instance" xsi:noNamespaceSchemaLocation="http://sumo.dlr.de/xsd/duarouterConfiguration.xsd">

    <input>
        <net-file value="scenario/5x5/5x5.net.xml"/>
        <route-files value="scenario/5x5/5x5.flow.xml"/>
    </input>

    <output>
        <output-file value="scenario/5x5/5x5.rou.xml"/>
    </output>

</configuration>
-->

<routes xmlns:xsi="http://www.w3.org/2001/XMLSchema-instance" xsi:noNamespaceSchemaLocation="http://sumo.dlr.de/xsd/routes_file.xsd">
    <vehicle id="bottom0_top4.0" depart="0.00" color="red">
        <route edges="bottom0A0 A0A1 A1A2 A2B2 B2C2 C2D2 D2E2 E2E3 E3E4 E4top4"/>
    </vehicle>
    <vehicle id="bottom1_top3.0" depart="0.00" color="cyan">
        <route edges="bottom1B0 B0B1 B1B2 B2C2 C2D2 D2D3 D3D4 D4top3"/>
    </vehicle>
    <vehicle id="bottom3_top1.0" depart="0.00" color="magenta">
        <route edges="bottom3D0 D0D1 D1D2 D2C2 C2B2 B2B3 B3B4 B4top1"/>
    </vehicle>
    <vehicle id="bottom4_top0.0" depart="0.00" color="blue">
        <route edges="bottom4E0 E0E1 E1E2 E2D2 D2C2 C2B2 B2A2 A2A3 A3A4 A4top0"/>
    </vehicle>
    <vehicle id="left0_right4.0" depart="0.00" color="green">
        <route edges="left0A0 A0A1 A1A2 A2B2 B2C2 C2D2 D2E2 E2E3 E3E4 E4right4"/>
    </vehicle>
    <vehicle id="left1_right3.0" depart="0.00" color="white">
        <route edges="left1A1 A1A2 A2B2 B2C2 C2D2 D2E2 E2E3 E3right3"/>
    </vehicle>
    <vehicle id="left3_right1.0" depart="0.00" color="255,150,0">
        <route edges="left3A3 A3A2 A2B2 B2C2 C2D2 D2E2 E2E1 E1right1"/>
    </vehicle>
    <vehicle id="left4_right0.0" depart="0.00" color="yellow">
        <route edges="left4A4 A4A3 A3A2 A2B2 B2C2 C2D2 D2E2 E2E1 E1E0 E0right0"/>
    </vehicle>
    <vehicle id="bottom0_top4.1" depart="0.89" color="red">
        <route edges="bottom0A0 A0A1 A1A2 A2B2 B2C2 C2D2 D2E2 E2E3 E3E4 E4top4"/>
    </vehicle>
    <vehicle id="bottom4_top0.1" depart="0.89" color="blue">
        <route edges="bottom4E0 E0E1 E1E2 E2D2 D2C2 C2B2 B2A2 A2A3 A3A4 A4top0"/>
    </vehicle>
    <vehicle id="left0_right4.1" depart="0.89" color="green">
        <route edges="left0A0 A0A1 A1A2 A2B2 B2C2 C2D2 D2E2 E2E3 E3E4 E4right4"/>
    </vehicle>
    <vehicle id="left4_right0.1" depart="0.89" color="yellow">
        <route edges="left4A4 A4A3 A3A2 A2B2 B2C2 C2D2 D2E2 E2E1 E1E0 E0right0"/>
    </vehicle>
    <vehicle id="bottom0_top4.2" depart="1.78" color="red">
        <route edges="bottom0A0 A0A1 A1A2 A2B2 B2C2 C2D2 D2E2 E2E3 E3E4 E4top4"/>
    </vehicle>
    <vehicle id="bottom4_top0.2" depart="1.78" color="blue">
        <route edges="bottom4E0 E0E1 E1E2 E2D2 D2C2 C2B2 B2A2 A2A3 A3A4 A4top0"/>
    </vehicle>
    <vehicle id="left0_right4.2" depart="1.78" color="green">
        <route edges="left0A0 A0A1 A1A2 A2B2 B2C2 C2D2 D2E2 E2E3 E3E4 E4right4"/>
    </vehicle>
    <vehicle id="left4_right0.2" depart="1.78" color="yellow">
        <route edges="left4A4 A4A3 A3A2 A2B2 B2C2 C2D2 D2E2 E2E1 E1E0 E0right0"/>
    </vehicle>
    <vehicle id="bottom1_top3.1" depart="1.89" color="cyan">
        <route edges="bottom1B0 B0B1 B1B2 B2C2 C2D2 D2D3 D3D4 D4top3"/>
    </vehicle>
    <vehicle id="bottom3_top1.1" depart="1.89" color="magenta">
        <route edges="bottom3D0 D0D1 D1D2 D2C2 C2B2 B2B3 B3B4 B4top1"/>
    </vehicle>
    <vehicle id="left1_right3.1" depart="1.89" color="white">
        <route edges="left1A1 A1A2 A2B2 B2C2 C2D2 D2E2 E2E3 E3right3"/>
    </vehicle>
    <vehicle id="left3_right1.1" depart="1.89" color="255,150,0">
        <route edges="left3A3 A3A2 A2B2 B2C2 C2D2 D2E2 E2E1 E1right1"/>
    </vehicle>
    <vehicle id="bottom0_top4.3" depart="2.68" color="red">
        <route edges="bottom0A0 A0A1 A1A2 A2B2 B2C2 C2D2 D2E2 E2E3 E3E4 E4top4"/>
    </vehicle>
    <vehicle id="bottom4_top0.3" depart="2.68" color="blue">
        <route edges="bottom4E0 E0E1 E1E2 E2D2 D2C2 C2B2 B2A2 A2A3 A3A4 A4top0"/>
    </vehicle>
    <vehicle id="left0_right4.3" depart="2.68" color="green">
        <route edges="left0A0 A0A1 A1A2 A2B2 B2C2 C2D2 D2E2 E2E3 E3E4 E4right4"/>
    </vehicle>
    <vehicle id="left4_right0.3" depart="2.68" color="yellow">
        <route edges="left4A4 A4A3 A3A2 A2B2 B2C2 C2D2 D2E2 E2E1 E1E0 E0right0"/>
    </vehicle>
    <vehicle id="bottom0_top4.4" depart="3.57" color="red">
        <route edges="bottom0A0 A0A1 A1A2 A2B2 B2C2 C2D2 D2E2 E2E3 E3E4 E4top4"/>
    </vehicle>
    <vehicle id="bottom4_top0.4" depart="3.57" color="blue">
        <route edges="bottom4E0 E0E1 E1E2 E2D2 D2C2 C2B2 B2A2 A2A3 A3A4 A4top0"/>
    </vehicle>
    <vehicle id="left0_right4.4" depart="3.57" color="green">
        <route edges="left0A0 A0A1 A1A2 A2B2 B2C2 C2D2 D2E2 E2E3 E3E4 E4right4"/>
    </vehicle>
    <vehicle id="left4_right0.4" depart="3.57" color="yellow">
        <route edges="left4A4 A4A3 A3A2 A2B2 B2C2 C2D2 D2E2 E2E1 E1E0 E0right0"/>
    </vehicle>
    <vehicle id="bottom1_top3.2" depart="3.77" color="cyan">
        <route edges="bottom1B0 B0B1 B1B2 B2C2 C2D2 D2D3 D3D4 D4top3"/>
    </vehicle>
    <vehicle id="bottom3_top1.2" depart="3.77" color="magenta">
        <route edges="bottom3D0 D0D1 D1D2 D2C2 C2B2 B2B3 B3B4 B4top1"/>
    </vehicle>
    <vehicle id="left1_right3.2" depart="3.77" color="white">
        <route edges="left1A1 A1A2 A2B2 B2C2 C2D2 D2E2 E2E3 E3right3"/>
    </vehicle>
    <vehicle id="left3_right1.2" depart="3.77" color="255,150,0">
        <route edges="left3A3 A3A2 A2B2 B2C2 C2D2 D2E2 E2E1 E1right1"/>
    </vehicle>
    <vehicle id="bottom0_top4.5" depart="4.46" color="red">
        <route edges="bottom0A0 A0A1 A1A2 A2B2 B2C2 C2D2 D2E2 E2E3 E3E4 E4top4"/>
    </vehicle>
    <vehicle id="bottom4_top0.5" depart="4.46" color="blue">
        <route edges="bottom4E0 E0E1 E1E2 E2D2 D2C2 C2B2 B2A2 A2A3 A3A4 A4top0"/>
    </vehicle>
    <vehicle id="left0_right4.5" depart="4.46" color="green">
        <route edges="left0A0 A0A1 A1A2 A2B2 B2C2 C2D2 D2E2 E2E3 E3E4 E4right4"/>
    </vehicle>
    <vehicle id="left4_right0.5" depart="4.46" color="yellow">
        <route edges="left4A4 A4A3 A3A2 A2B2 B2C2 C2D2 D2E2 E2E1 E1E0 E0right0"/>
    </vehicle>
    <vehicle id="bottom0_top4.6" depart="5.35" color="red">
        <route edges="bottom0A0 A0A1 A1A2 A2B2 B2C2 C2D2 D2E2 E2E3 E3E4 E4top4"/>
    </vehicle>
    <vehicle id="bottom4_top0.6" depart="5.35" color="blue">
        <route edges="bottom4E0 E0E1 E1E2 E2D2 D2C2 C2B2 B2A2 A2A3 A3A4 A4top0"/>
    </vehicle>
    <vehicle id="left0_right4.6" depart="5.35" color="green">
        <route edges="left0A0 A0A1 A1A2 A2B2 B2C2 C2D2 D2E2 E2E3 E3E4 E4right4"/>
    </vehicle>
    <vehicle id="left4_right0.6" depart="5.35" color="yellow">
        <route edges="left4A4 A4A3 A3A2 A2B2 B2C2 C2D2 D2E2 E2E1 E1E0 E0right0"/>
    </vehicle>
    <vehicle id="bottom1_top3.3" depart="5.66" color="cyan">
        <route edges="bottom1B0 B0B1 B1B2 B2C2 C2D2 D2D3 D3D4 D4top3"/>
    </vehicle>
    <vehicle id="bottom3_top1.3" depart="5.66" color="magenta">
        <route edges="bottom3D0 D0D1 D1D2 D2C2 C2B2 B2B3 B3B4 B4top1"/>
    </vehicle>
    <vehicle id="left1_right3.3" depart="5.66" color="white">
        <route edges="left1A1 A1A2 A2B2 B2C2 C2D2 D2E2 E2E3 E3right3"/>
    </vehicle>
    <vehicle id="left3_right1.3" depart="5.66" color="255,150,0">
        <route edges="left3A3 A3A2 A2B2 B2C2 C2D2 D2E2 E2E1 E1right1"/>
    </vehicle>
    <vehicle id="bottom0_top4.7" depart="6.24" color="red">
        <route edges="bottom0A0 A0A1 A1A2 A2B2 B2C2 C2D2 D2E2 E2E3 E3E4 E4top4"/>
    </vehicle>
    <vehicle id="bottom4_top0.7" depart="6.24" color="blue">
        <route edges="bottom4E0 E0E1 E1E2 E2D2 D2C2 C2B2 B2A2 A2A3 A3A4 A4top0"/>
    </vehicle>
    <vehicle id="left0_right4.7" depart="6.24" color="green">
        <route edges="left0A0 A0A1 A1A2 A2B2 B2C2 C2D2 D2E2 E2E3 E3E4 E4right4"/>
    </vehicle>
    <vehicle id="left4_right0.7" depart="6.24" color="yellow">
        <route edges="left4A4 A4A3 A3A2 A2B2 B2C2 C2D2 D2E2 E2E1 E1E0 E0right0"/>
    </vehicle>
    <vehicle id="bottom0_top4.8" depart="7.14" color="red">
        <route edges="bottom0A0 A0A1 A1A2 A2B2 B2C2 C2D2 D2E2 E2E3 E3E4 E4top4"/>
    </vehicle>
    <vehicle id="bottom4_top0.8" depart="7.14" color="blue">
        <route edges="bottom4E0 E0E1 E1E2 E2D2 D2C2 C2B2 B2A2 A2A3 A3A4 A4top0"/>
    </vehicle>
    <vehicle id="left0_right4.8" depart="7.14" color="green">
        <route edges="left0A0 A0A1 A1A2 A2B2 B2C2 C2D2 D2E2 E2E3 E3E4 E4right4"/>
    </vehicle>
    <vehicle id="left4_right0.8" depart="7.14" color="yellow">
        <route edges="left4A4 A4A3 A3A2 A2B2 B2C2 C2D2 D2E2 E2E1 E1E0 E0right0"/>
    </vehicle>
    <vehicle id="bottom1_top3.4" depart="7.54" color="cyan">
        <route edges="bottom1B0 B0B1 B1B2 B2C2 C2D2 D2D3 D3D4 D4top3"/>
    </vehicle>
    <vehicle id="bottom3_top1.4" depart="7.54" color="magenta">
        <route edges="bottom3D0 D0D1 D1D2 D2C2 C2B2 B2B3 B3B4 B4top1"/>
    </vehicle>
    <vehicle id="left1_right3.4" depart="7.54" color="white">
        <route edges="left1A1 A1A2 A2B2 B2C2 C2D2 D2E2 E2E3 E3right3"/>
    </vehicle>
    <vehicle id="left3_right1.4" depart="7.54" color="255,150,0">
        <route edges="left3A3 A3A2 A2B2 B2C2 C2D2 D2E2 E2E1 E1right1"/>
    </vehicle>
    <vehicle id="bottom0_top4.9" depart="8.03" color="red">
        <route edges="bottom0A0 A0A1 A1A2 A2B2 B2C2 C2D2 D2E2 E2E3 E3E4 E4top4"/>
    </vehicle>
    <vehicle id="bottom4_top0.9" depart="8.03" color="blue">
        <route edges="bottom4E0 E0E1 E1E2 E2D2 D2C2 C2B2 B2A2 A2A3 A3A4 A4top0"/>
    </vehicle>
    <vehicle id="left0_right4.9" depart="8.03" color="green">
        <route edges="left0A0 A0A1 A1A2 A2B2 B2C2 C2D2 D2E2 E2E3 E3E4 E4right4"/>
    </vehicle>
    <vehicle id="left4_right0.9" depart="8.03" color="yellow">
        <route edges="left4A4 A4A3 A3A2 A2B2 B2C2 C2D2 D2E2 E2E1 E1E0 E0right0"/>
    </vehicle>
    <vehicle id="bottom0_top4.10" depart="8.92" color="red">
        <route edges="bottom0A0 A0A1 A1A2 A2B2 B2C2 C2D2 D2E2 E2E3 E3E4 E4top4"/>
    </vehicle>
    <vehicle id="bottom4_top0.10" depart="8.92" color="blue">
        <route edges="bottom4E0 E0E1 E1E2 E2D2 D2C2 C2B2 B2A2 A2A3 A3A4 A4top0"/>
    </vehicle>
    <vehicle id="left0_right4.10" depart="8.92" color="green">
        <route edges="left0A0 A0A1 A1A2 A2B2 B2C2 C2D2 D2E2 E2E3 E3E4 E4right4"/>
    </vehicle>
    <vehicle id="left4_right0.10" depart="8.92" color="yellow">
        <route edges="left4A4 A4A3 A3A2 A2B2 B2C2 C2D2 D2E2 E2E1 E1E0 E0right0"/>
    </vehicle>
    <vehicle id="bottom1_top3.5" depart="9.43" color="cyan">
        <route edges="bottom1B0 B0B1 B1B2 B2C2 C2D2 D2D3 D3D4 D4top3"/>
    </vehicle>
    <vehicle id="bottom3_top1.5" depart="9.43" color="magenta">
        <route edges="bottom3D0 D0D1 D1D2 D2C2 C2B2 B2B3 B3B4 B4top1"/>
    </vehicle>
    <vehicle id="left1_right3.5" depart="9.43" color="white">
        <route edges="left1A1 A1A2 A2B2 B2C2 C2D2 D2E2 E2E3 E3right3"/>
    </vehicle>
    <vehicle id="left3_right1.5" depart="9.43" color="255,150,0">
        <route edges="left3A3 A3A2 A2B2 B2C2 C2D2 D2E2 E2E1 E1right1"/>
    </vehicle>
    <vehicle id="bottom0_top4.11" depart="9.81" color="red">
        <route edges="bottom0A0 A0A1 A1A2 A2B2 B2C2 C2D2 D2E2 E2E3 E3E4 E4top4"/>
    </vehicle>
    <vehicle id="bottom4_top0.11" depart="9.81" color="blue">
        <route edges="bottom4E0 E0E1 E1E2 E2D2 D2C2 C2B2 B2A2 A2A3 A3A4 A4top0"/>
    </vehicle>
    <vehicle id="left0_right4.11" depart="9.81" color="green">
        <route edges="left0A0 A0A1 A1A2 A2B2 B2C2 C2D2 D2E2 E2E3 E3E4 E4right4"/>
    </vehicle>
    <vehicle id="left4_right0.11" depart="9.81" color="yellow">
        <route edges="left4A4 A4A3 A3A2 A2B2 B2C2 C2D2 D2E2 E2E1 E1E0 E0right0"/>
    </vehicle>
    <vehicle id="bottom0_top4.12" depart="10.70" color="red">
        <route edges="bottom0A0 A0A1 A1A2 A2B2 B2C2 C2D2 D2E2 E2E3 E3E4 E4top4"/>
    </vehicle>
    <vehicle id="bottom4_top0.12" depart="10.70" color="blue">
        <route edges="bottom4E0 E0E1 E1E2 E2D2 D2C2 C2B2 B2A2 A2A3 A3A4 A4top0"/>
    </vehicle>
    <vehicle id="left0_right4.12" depart="10.70" color="green">
        <route edges="left0A0 A0A1 A1A2 A2B2 B2C2 C2D2 D2E2 E2E3 E3E4 E4right4"/>
    </vehicle>
    <vehicle id="left4_right0.12" depart="10.70" color="yellow">
        <route edges="left4A4 A4A3 A3A2 A2B2 B2C2 C2D2 D2E2 E2E1 E1E0 E0right0"/>
    </vehicle>
    <vehicle id="bottom1_top3.6" depart="11.32" color="cyan">
        <route edges="bottom1B0 B0B1 B1B2 B2C2 C2D2 D2D3 D3D4 D4top3"/>
    </vehicle>
    <vehicle id="bottom3_top1.6" depart="11.32" color="magenta">
        <route edges="bottom3D0 D0D1 D1D2 D2C2 C2B2 B2B3 B3B4 B4top1"/>
    </vehicle>
    <vehicle id="left1_right3.6" depart="11.32" color="white">
        <route edges="left1A1 A1A2 A2B2 B2C2 C2D2 D2E2 E2E3 E3right3"/>
    </vehicle>
    <vehicle id="left3_right1.6" depart="11.32" color="255,150,0">
        <route edges="left3A3 A3A2 A2B2 B2C2 C2D2 D2E2 E2E1 E1right1"/>
    </vehicle>
    <vehicle id="bottom0_top4.13" depart="11.60" color="red">
        <route edges="bottom0A0 A0A1 A1A2 A2B2 B2C2 C2D2 D2E2 E2E3 E3E4 E4top4"/>
    </vehicle>
    <vehicle id="bottom4_top0.13" depart="11.60" color="blue">
        <route edges="bottom4E0 E0E1 E1E2 E2D2 D2C2 C2B2 B2A2 A2A3 A3A4 A4top0"/>
    </vehicle>
    <vehicle id="left0_right4.13" depart="11.60" color="green">
        <route edges="left0A0 A0A1 A1A2 A2B2 B2C2 C2D2 D2E2 E2E3 E3E4 E4right4"/>
    </vehicle>
    <vehicle id="left4_right0.13" depart="11.60" color="yellow">
        <route edges="left4A4 A4A3 A3A2 A2B2 B2C2 C2D2 D2E2 E2E1 E1E0 E0right0"/>
    </vehicle>
    <vehicle id="bottom0_top4.14" depart="12.49" color="red">
        <route edges="bottom0A0 A0A1 A1A2 A2B2 B2C2 C2D2 D2E2 E2E3 E3E4 E4top4"/>
    </vehicle>
    <vehicle id="bottom4_top0.14" depart="12.49" color="blue">
        <route edges="bottom4E0 E0E1 E1E2 E2D2 D2C2 C2B2 B2A2 A2A3 A3A4 A4top0"/>
    </vehicle>
    <vehicle id="left0_right4.14" depart="12.49" color="green">
        <route edges="left0A0 A0A1 A1A2 A2B2 B2C2 C2D2 D2E2 E2E3 E3E4 E4right4"/>
    </vehicle>
    <vehicle id="left4_right0.14" depart="12.49" color="yellow">
        <route edges="left4A4 A4A3 A3A2 A2B2 B2C2 C2D2 D2E2 E2E1 E1E0 E0right0"/>
    </vehicle>
    <vehicle id="bottom1_top3.7" depart="13.20" color="cyan">
        <route edges="bottom1B0 B0B1 B1B2 B2C2 C2D2 D2D3 D3D4 D4top3"/>
    </vehicle>
    <vehicle id="bottom3_top1.7" depart="13.20" color="magenta">
        <route edges="bottom3D0 D0D1 D1D2 D2C2 C2B2 B2B3 B3B4 B4top1"/>
    </vehicle>
    <vehicle id="left1_right3.7" depart="13.20" color="white">
        <route edges="left1A1 A1A2 A2B2 B2C2 C2D2 D2E2 E2E3 E3right3"/>
    </vehicle>
    <vehicle id="left3_right1.7" depart="13.20" color="255,150,0">
        <route edges="left3A3 A3A2 A2B2 B2C2 C2D2 D2E2 E2E1 E1right1"/>
    </vehicle>
    <vehicle id="bottom0_top4.15" depart="13.38" color="red">
        <route edges="bottom0A0 A0A1 A1A2 A2B2 B2C2 C2D2 D2E2 E2E3 E3E4 E4top4"/>
    </vehicle>
    <vehicle id="bottom4_top0.15" depart="13.38" color="blue">
        <route edges="bottom4E0 E0E1 E1E2 E2D2 D2C2 C2B2 B2A2 A2A3 A3A4 A4top0"/>
    </vehicle>
    <vehicle id="left0_right4.15" depart="13.38" color="green">
        <route edges="left0A0 A0A1 A1A2 A2B2 B2C2 C2D2 D2E2 E2E3 E3E4 E4right4"/>
    </vehicle>
    <vehicle id="left4_right0.15" depart="13.38" color="yellow">
        <route edges="left4A4 A4A3 A3A2 A2B2 B2C2 C2D2 D2E2 E2E1 E1E0 E0right0"/>
    </vehicle>
    <vehicle id="bottom0_top4.16" depart="14.27" color="red">
        <route edges="bottom0A0 A0A1 A1A2 A2B2 B2C2 C2D2 D2E2 E2E3 E3E4 E4top4"/>
    </vehicle>
    <vehicle id="bottom4_top0.16" depart="14.27" color="blue">
        <route edges="bottom4E0 E0E1 E1E2 E2D2 D2C2 C2B2 B2A2 A2A3 A3A4 A4top0"/>
    </vehicle>
    <vehicle id="left0_right4.16" depart="14.27" color="green">
        <route edges="left0A0 A0A1 A1A2 A2B2 B2C2 C2D2 D2E2 E2E3 E3E4 E4right4"/>
    </vehicle>
    <vehicle id="left4_right0.16" depart="14.27" color="yellow">
        <route edges="left4A4 A4A3 A3A2 A2B2 B2C2 C2D2 D2E2 E2E1 E1E0 E0right0"/>
    </vehicle>
    <vehicle id="bottom1_top3.8" depart="15.09" color="cyan">
        <route edges="bottom1B0 B0B1 B1B2 B2C2 C2D2 D2D3 D3D4 D4top3"/>
    </vehicle>
    <vehicle id="bottom3_top1.8" depart="15.09" color="magenta">
        <route edges="bottom3D0 D0D1 D1D2 D2C2 C2B2 B2B3 B3B4 B4top1"/>
    </vehicle>
    <vehicle id="left1_right3.8" depart="15.09" color="white">
        <route edges="left1A1 A1A2 A2B2 B2C2 C2D2 D2E2 E2E3 E3right3"/>
    </vehicle>
    <vehicle id="left3_right1.8" depart="15.09" color="255,150,0">
        <route edges="left3A3 A3A2 A2B2 B2C2 C2D2 D2E2 E2E1 E1right1"/>
    </vehicle>
    <vehicle id="bottom0_top4.17" depart="15.16" color="red">
        <route edges="bottom0A0 A0A1 A1A2 A2B2 B2C2 C2D2 D2E2 E2E3 E3E4 E4top4"/>
    </vehicle>
    <vehicle id="bottom4_top0.17" depart="15.16" color="blue">
        <route edges="bottom4E0 E0E1 E1E2 E2D2 D2C2 C2B2 B2A2 A2A3 A3A4 A4top0"/>
    </vehicle>
    <vehicle id="left0_right4.17" depart="15.16" color="green">
        <route edges="left0A0 A0A1 A1A2 A2B2 B2C2 C2D2 D2E2 E2E3 E3E4 E4right4"/>
    </vehicle>
    <vehicle id="left4_right0.17" depart="15.16" color="yellow">
        <route edges="left4A4 A4A3 A3A2 A2B2 B2C2 C2D2 D2E2 E2E1 E1E0 E0right0"/>
    </vehicle>
    <vehicle id="bottom0_top4.18" depart="16.06" color="red">
        <route edges="bottom0A0 A0A1 A1A2 A2B2 B2C2 C2D2 D2E2 E2E3 E3E4 E4top4"/>
    </vehicle>
    <vehicle id="bottom4_top0.18" depart="16.06" color="blue">
        <route edges="bottom4E0 E0E1 E1E2 E2D2 D2C2 C2B2 B2A2 A2A3 A3A4 A4top0"/>
    </vehicle>
    <vehicle id="left0_right4.18" depart="16.06" color="green">
        <route edges="left0A0 A0A1 A1A2 A2B2 B2C2 C2D2 D2E2 E2E3 E3E4 E4right4"/>
    </vehicle>
    <vehicle id="left4_right0.18" depart="16.06" color="yellow">
        <route edges="left4A4 A4A3 A3A2 A2B2 B2C2 C2D2 D2E2 E2E1 E1E0 E0right0"/>
    </vehicle>
    <vehicle id="bottom0_top4.19" depart="16.95" color="red">
        <route edges="bottom0A0 A0A1 A1A2 A2B2 B2C2 C2D2 D2E2 E2E3 E3E4 E4top4"/>
    </vehicle>
    <vehicle id="bottom4_top0.19" depart="16.95" color="blue">
        <route edges="bottom4E0 E0E1 E1E2 E2D2 D2C2 C2B2 B2A2 A2A3 A3A4 A4top0"/>
    </vehicle>
    <vehicle id="left0_right4.19" depart="16.95" color="green">
        <route edges="left0A0 A0A1 A1A2 A2B2 B2C2 C2D2 D2E2 E2E3 E3E4 E4right4"/>
    </vehicle>
    <vehicle id="left4_right0.19" depart="16.95" color="yellow">
        <route edges="left4A4 A4A3 A3A2 A2B2 B2C2 C2D2 D2E2 E2E1 E1E0 E0right0"/>
    </vehicle>
    <vehicle id="bottom1_top3.9" depart="16.97" color="cyan">
        <route edges="bottom1B0 B0B1 B1B2 B2C2 C2D2 D2D3 D3D4 D4top3"/>
    </vehicle>
    <vehicle id="bottom3_top1.9" depart="16.97" color="magenta">
        <route edges="bottom3D0 D0D1 D1D2 D2C2 C2B2 B2B3 B3B4 B4top1"/>
    </vehicle>
    <vehicle id="left1_right3.9" depart="16.97" color="white">
        <route edges="left1A1 A1A2 A2B2 B2C2 C2D2 D2E2 E2E3 E3right3"/>
    </vehicle>
    <vehicle id="left3_right1.9" depart="16.97" color="255,150,0">
        <route edges="left3A3 A3A2 A2B2 B2C2 C2D2 D2E2 E2E1 E1right1"/>
    </vehicle>
    <vehicle id="bottom0_top4.20" depart="17.84" color="red">
        <route edges="bottom0A0 A0A1 A1A2 A2B2 B2C2 C2D2 D2E2 E2E3 E3E4 E4top4"/>
    </vehicle>
    <vehicle id="bottom4_top0.20" depart="17.84" color="blue">
        <route edges="bottom4E0 E0E1 E1E2 E2D2 D2C2 C2B2 B2A2 A2A3 A3A4 A4top0"/>
    </vehicle>
    <vehicle id="left0_right4.20" depart="17.84" color="green">
        <route edges="left0A0 A0A1 A1A2 A2B2 B2C2 C2D2 D2E2 E2E3 E3E4 E4right4"/>
    </vehicle>
    <vehicle id="left4_right0.20" depart="17.84" color="yellow">
        <route edges="left4A4 A4A3 A3A2 A2B2 B2C2 C2D2 D2E2 E2E1 E1E0 E0right0"/>
    </vehicle>
    <vehicle id="bottom0_top4.21" depart="18.73" color="red">
        <route edges="bottom0A0 A0A1 A1A2 A2B2 B2C2 C2D2 D2E2 E2E3 E3E4 E4top4"/>
    </vehicle>
    <vehicle id="bottom4_top0.21" depart="18.73" color="blue">
        <route edges="bottom4E0 E0E1 E1E2 E2D2 D2C2 C2B2 B2A2 A2A3 A3A4 A4top0"/>
    </vehicle>
    <vehicle id="left0_right4.21" depart="18.73" color="green">
        <route edges="left0A0 A0A1 A1A2 A2B2 B2C2 C2D2 D2E2 E2E3 E3E4 E4right4"/>
    </vehicle>
    <vehicle id="left4_right0.21" depart="18.73" color="yellow">
        <route edges="left4A4 A4A3 A3A2 A2B2 B2C2 C2D2 D2E2 E2E1 E1E0 E0right0"/>
    </vehicle>
    <vehicle id="bottom1_top3.10" depart="18.86" color="cyan">
        <route edges="bottom1B0 B0B1 B1B2 B2C2 C2D2 D2D3 D3D4 D4top3"/>
    </vehicle>
    <vehicle id="bottom3_top1.10" depart="18.86" color="magenta">
        <route edges="bottom3D0 D0D1 D1D2 D2C2 C2B2 B2B3 B3B4 B4top1"/>
    </vehicle>
    <vehicle id="left1_right3.10" depart="18.86" color="white">
        <route edges="left1A1 A1A2 A2B2 B2C2 C2D2 D2E2 E2E3 E3right3"/>
    </vehicle>
    <vehicle id="left3_right1.10" depart="18.86" color="255,150,0">
        <route edges="left3A3 A3A2 A2B2 B2C2 C2D2 D2E2 E2E1 E1right1"/>
    </vehicle>
    <vehicle id="bottom0_top4.22" depart="19.62" color="red">
        <route edges="bottom0A0 A0A1 A1A2 A2B2 B2C2 C2D2 D2E2 E2E3 E3E4 E4top4"/>
    </vehicle>
    <vehicle id="bottom4_top0.22" depart="19.62" color="blue">
        <route edges="bottom4E0 E0E1 E1E2 E2D2 D2C2 C2B2 B2A2 A2A3 A3A4 A4top0"/>
    </vehicle>
    <vehicle id="left0_right4.22" depart="19.62" color="green">
        <route edges="left0A0 A0A1 A1A2 A2B2 B2C2 C2D2 D2E2 E2E3 E3E4 E4right4"/>
    </vehicle>
    <vehicle id="left4_right0.22" depart="19.62" color="yellow">
        <route edges="left4A4 A4A3 A3A2 A2B2 B2C2 C2D2 D2E2 E2E1 E1E0 E0right0"/>
    </vehicle>
    <vehicle id="bottom0_top4.23" depart="20.52" color="red">
        <route edges="bottom0A0 A0A1 A1A2 A2B2 B2C2 C2D2 D2E2 E2E3 E3E4 E4top4"/>
    </vehicle>
    <vehicle id="bottom4_top0.23" depart="20.52" color="blue">
        <route edges="bottom4E0 E0E1 E1E2 E2D2 D2C2 C2B2 B2A2 A2A3 A3A4 A4top0"/>
    </vehicle>
    <vehicle id="left0_right4.23" depart="20.52" color="green">
        <route edges="left0A0 A0A1 A1A2 A2B2 B2C2 C2D2 D2E2 E2E3 E3E4 E4right4"/>
    </vehicle>
    <vehicle id="left4_right0.23" depart="20.52" color="yellow">
        <route edges="left4A4 A4A3 A3A2 A2B2 B2C2 C2D2 D2E2 E2E1 E1E0 E0right0"/>
    </vehicle>
    <vehicle id="bottom1_top3.11" depart="20.75" color="cyan">
        <route edges="bottom1B0 B0B1 B1B2 B2C2 C2D2 D2D3 D3D4 D4top3"/>
    </vehicle>
    <vehicle id="bottom3_top1.11" depart="20.75" color="magenta">
        <route edges="bottom3D0 D0D1 D1D2 D2C2 C2B2 B2B3 B3B4 B4top1"/>
    </vehicle>
    <vehicle id="left1_right3.11" depart="20.75" color="white">
        <route edges="left1A1 A1A2 A2B2 B2C2 C2D2 D2E2 E2E3 E3right3"/>
    </vehicle>
    <vehicle id="left3_right1.11" depart="20.75" color="255,150,0">
        <route edges="left3A3 A3A2 A2B2 B2C2 C2D2 D2E2 E2E1 E1right1"/>
    </vehicle>
    <vehicle id="bottom0_top4.24" depart="21.41" color="red">
        <route edges="bottom0A0 A0A1 A1A2 A2B2 B2C2 C2D2 D2E2 E2E3 E3E4 E4top4"/>
    </vehicle>
    <vehicle id="bottom4_top0.24" depart="21.41" color="blue">
        <route edges="bottom4E0 E0E1 E1E2 E2D2 D2C2 C2B2 B2A2 A2A3 A3A4 A4top0"/>
    </vehicle>
    <vehicle id="left0_right4.24" depart="21.41" color="green">
        <route edges="left0A0 A0A1 A1A2 A2B2 B2C2 C2D2 D2E2 E2E3 E3E4 E4right4"/>
    </vehicle>
    <vehicle id="left4_right0.24" depart="21.41" color="yellow">
        <route edges="left4A4 A4A3 A3A2 A2B2 B2C2 C2D2 D2E2 E2E1 E1E0 E0right0"/>
    </vehicle>
    <vehicle id="bottom0_top4.25" depart="22.30" color="red">
        <route edges="bottom0A0 A0A1 A1A2 A2B2 B2C2 C2D2 D2E2 E2E3 E3E4 E4top4"/>
    </vehicle>
    <vehicle id="bottom4_top0.25" depart="22.30" color="blue">
        <route edges="bottom4E0 E0E1 E1E2 E2D2 D2C2 C2B2 B2A2 A2A3 A3A4 A4top0"/>
    </vehicle>
    <vehicle id="left0_right4.25" depart="22.30" color="green">
        <route edges="left0A0 A0A1 A1A2 A2B2 B2C2 C2D2 D2E2 E2E3 E3E4 E4right4"/>
    </vehicle>
    <vehicle id="left4_right0.25" depart="22.30" color="yellow">
        <route edges="left4A4 A4A3 A3A2 A2B2 B2C2 C2D2 D2E2 E2E1 E1E0 E0right0"/>
    </vehicle>
    <vehicle id="bottom1_top3.12" depart="22.63" color="cyan">
        <route edges="bottom1B0 B0B1 B1B2 B2C2 C2D2 D2D3 D3D4 D4top3"/>
    </vehicle>
    <vehicle id="bottom3_top1.12" depart="22.63" color="magenta">
        <route edges="bottom3D0 D0D1 D1D2 D2C2 C2B2 B2B3 B3B4 B4top1"/>
    </vehicle>
    <vehicle id="left1_right3.12" depart="22.63" color="white">
        <route edges="left1A1 A1A2 A2B2 B2C2 C2D2 D2E2 E2E3 E3right3"/>
    </vehicle>
    <vehicle id="left3_right1.12" depart="22.63" color="255,150,0">
        <route edges="left3A3 A3A2 A2B2 B2C2 C2D2 D2E2 E2E1 E1right1"/>
    </vehicle>
    <vehicle id="bottom0_top4.26" depart="23.19" color="red">
        <route edges="bottom0A0 A0A1 A1A2 A2B2 B2C2 C2D2 D2E2 E2E3 E3E4 E4top4"/>
    </vehicle>
    <vehicle id="bottom4_top0.26" depart="23.19" color="blue">
        <route edges="bottom4E0 E0E1 E1E2 E2D2 D2C2 C2B2 B2A2 A2A3 A3A4 A4top0"/>
    </vehicle>
    <vehicle id="left0_right4.26" depart="23.19" color="green">
        <route edges="left0A0 A0A1 A1A2 A2B2 B2C2 C2D2 D2E2 E2E3 E3E4 E4right4"/>
    </vehicle>
    <vehicle id="left4_right0.26" depart="23.19" color="yellow">
        <route edges="left4A4 A4A3 A3A2 A2B2 B2C2 C2D2 D2E2 E2E1 E1E0 E0right0"/>
    </vehicle>
    <vehicle id="bottom0_top4.27" depart="24.08" color="red">
        <route edges="bottom0A0 A0A1 A1A2 A2B2 B2C2 C2D2 D2E2 E2E3 E3E4 E4top4"/>
    </vehicle>
    <vehicle id="bottom4_top0.27" depart="24.08" color="blue">
        <route edges="bottom4E0 E0E1 E1E2 E2D2 D2C2 C2B2 B2A2 A2A3 A3A4 A4top0"/>
    </vehicle>
    <vehicle id="left0_right4.27" depart="24.08" color="green">
        <route edges="left0A0 A0A1 A1A2 A2B2 B2C2 C2D2 D2E2 E2E3 E3E4 E4right4"/>
    </vehicle>
    <vehicle id="left4_right0.27" depart="24.08" color="yellow">
        <route edges="left4A4 A4A3 A3A2 A2B2 B2C2 C2D2 D2E2 E2E1 E1E0 E0right0"/>
    </vehicle>
    <vehicle id="bottom1_top3.13" depart="24.52" color="cyan">
        <route edges="bottom1B0 B0B1 B1B2 B2C2 C2D2 D2D3 D3D4 D4top3"/>
    </vehicle>
    <vehicle id="bottom3_top1.13" depart="24.52" color="magenta">
        <route edges="bottom3D0 D0D1 D1D2 D2C2 C2B2 B2B3 B3B4 B4top1"/>
    </vehicle>
    <vehicle id="left1_right3.13" depart="24.52" color="white">
        <route edges="left1A1 A1A2 A2B2 B2C2 C2D2 D2E2 E2E3 E3right3"/>
    </vehicle>
    <vehicle id="left3_right1.13" depart="24.52" color="255,150,0">
        <route edges="left3A3 A3A2 A2B2 B2C2 C2D2 D2E2 E2E1 E1right1"/>
    </vehicle>
    <vehicle id="bottom0_top4.28" depart="24.98" color="red">
        <route edges="bottom0A0 A0A1 A1A2 A2B2 B2C2 C2D2 D2E2 E2E3 E3E4 E4top4"/>
    </vehicle>
    <vehicle id="bottom4_top0.28" depart="24.98" color="blue">
        <route edges="bottom4E0 E0E1 E1E2 E2D2 D2C2 C2B2 B2A2 A2A3 A3A4 A4top0"/>
    </vehicle>
    <vehicle id="left0_right4.28" depart="24.98" color="green">
        <route edges="left0A0 A0A1 A1A2 A2B2 B2C2 C2D2 D2E2 E2E3 E3E4 E4right4"/>
    </vehicle>
    <vehicle id="left4_right0.28" depart="24.98" color="yellow">
        <route edges="left4A4 A4A3 A3A2 A2B2 B2C2 C2D2 D2E2 E2E1 E1E0 E0right0"/>
    </vehicle>
    <vehicle id="bottom0_top4.29" depart="25.87" color="red">
        <route edges="bottom0A0 A0A1 A1A2 A2B2 B2C2 C2D2 D2E2 E2E3 E3E4 E4top4"/>
    </vehicle>
    <vehicle id="bottom4_top0.29" depart="25.87" color="blue">
        <route edges="bottom4E0 E0E1 E1E2 E2D2 D2C2 C2B2 B2A2 A2A3 A3A4 A4top0"/>
    </vehicle>
    <vehicle id="left0_right4.29" depart="25.87" color="green">
        <route edges="left0A0 A0A1 A1A2 A2B2 B2C2 C2D2 D2E2 E2E3 E3E4 E4right4"/>
    </vehicle>
    <vehicle id="left4_right0.29" depart="25.87" color="yellow">
        <route edges="left4A4 A4A3 A3A2 A2B2 B2C2 C2D2 D2E2 E2E1 E1E0 E0right0"/>
    </vehicle>
    <vehicle id="bottom1_top3.14" depart="26.40" color="cyan">
        <route edges="bottom1B0 B0B1 B1B2 B2C2 C2D2 D2D3 D3D4 D4top3"/>
    </vehicle>
    <vehicle id="bottom3_top1.14" depart="26.40" color="magenta">
        <route edges="bottom3D0 D0D1 D1D2 D2C2 C2B2 B2B3 B3B4 B4top1"/>
    </vehicle>
    <vehicle id="left1_right3.14" depart="26.40" color="white">
        <route edges="left1A1 A1A2 A2B2 B2C2 C2D2 D2E2 E2E3 E3right3"/>
    </vehicle>
    <vehicle id="left3_right1.14" depart="26.40" color="255,150,0">
        <route edges="left3A3 A3A2 A2B2 B2C2 C2D2 D2E2 E2E1 E1right1"/>
    </vehicle>
    <vehicle id="bottom0_top4.30" depart="26.76" color="red">
        <route edges="bottom0A0 A0A1 A1A2 A2B2 B2C2 C2D2 D2E2 E2E3 E3E4 E4top4"/>
    </vehicle>
    <vehicle id="bottom4_top0.30" depart="26.76" color="blue">
        <route edges="bottom4E0 E0E1 E1E2 E2D2 D2C2 C2B2 B2A2 A2A3 A3A4 A4top0"/>
    </vehicle>
    <vehicle id="left0_right4.30" depart="26.76" color="green">
        <route edges="left0A0 A0A1 A1A2 A2B2 B2C2 C2D2 D2E2 E2E3 E3E4 E4right4"/>
    </vehicle>
    <vehicle id="left4_right0.30" depart="26.76" color="yellow">
        <route edges="left4A4 A4A3 A3A2 A2B2 B2C2 C2D2 D2E2 E2E1 E1E0 E0right0"/>
    </vehicle>
    <vehicle id="bottom0_top4.31" depart="27.65" color="red">
        <route edges="bottom0A0 A0A1 A1A2 A2B2 B2C2 C2D2 D2E2 E2E3 E3E4 E4top4"/>
    </vehicle>
    <vehicle id="bottom4_top0.31" depart="27.65" color="blue">
        <route edges="bottom4E0 E0E1 E1E2 E2D2 D2C2 C2B2 B2A2 A2A3 A3A4 A4top0"/>
    </vehicle>
    <vehicle id="left0_right4.31" depart="27.65" color="green">
        <route edges="left0A0 A0A1 A1A2 A2B2 B2C2 C2D2 D2E2 E2E3 E3E4 E4right4"/>