<?xml version="1.0" encoding="UTF-8"?>

<!-- generated on 2024-01-10 08:08:56 by Eclipse SUMO duarouter Version 1.19.0
<configuration xmlns:xsi="http://www.w3.org/2001/XMLSchema-instance" xsi:noNamespaceSchemaLocation="http://sumo.dlr.de/xsd/duarouterConfiguration.xsd">

    <input>
        <net-file value="099/../../5x5.net.xml"/>
        <route-files value="099/../098/5x5.flow_098.rou.alt.xml"/>
        <weight-files value="099/../098/dump_900.xml"/>
    </input>

    <output>
        <output-file value="099/5x5.flow_099.rou.xml"/>
        <exit-times value="False"/>
    </output>

    <processing>
        <max-alternatives value="5"/>
        <with-taz value="False"/>
        <routing-algorithm value="dijkstra"/>
        <weights.expand value="true"/>
        <gawron.beta value="0.9"/>
        <gawron.a value="0.5"/>
        <keep-all-routes value="False"/>
        <logit.beta value="0.15"/>
        <logit.gamma value="1.0"/>
    </processing>

    <time>
        <begin value="0"/>
    </time>

    <report>
        <verbose value="False"/>
        <no-warnings value="False"/>
        <ignore-errors value="False"/>
        <no-step-log value="true"/>
    </report>

    <random_number>
        <random value="False"/>
    </random_number>

</configuration>
-->

<routes xmlns:xsi="http://www.w3.org/2001/XMLSchema-instance" xsi:noNamespaceSchemaLocation="http://sumo.dlr.de/xsd/routes_file.xsd">
    <vehicle id="bottom0_top4.0" depart="0.00" color="red">
        <route edges="bottom0A0 A0A1 A1B1 B1B2 B2B3 B3B4 B4C4 C4D4 D4E4 E4top4"/>
    </vehicle>
    <vehicle id="bottom1_top3.0" depart="0.00" color="cyan">
        <route edges="bottom1B0 B0C0 C0C1 C1D1 D1D2 D2D3 D3D4 D4top3"/>
    </vehicle>
    <vehicle id="bottom3_top1.0" depart="0.00" color="magenta">
        <route edges="bottom3D0 D0C0 C0C1 C1B1 B1B2 B2B3 B3B4 B4top1"/>
    </vehicle>
    <vehicle id="bottom4_top0.0" depart="0.00" color="blue">
        <route edges="bottom4E0 E0E1 E1E2 E2E3 E3D3 D3D4 D4C4 C4B4 B4A4 A4top0"/>
    </vehicle>
    <vehicle id="left0_right4.0" depart="0.00" color="green">
        <route edges="left0A0 A0A1 A1A2 A2B2 B2B3 B3B4 B4C4 C4D4 D4E4 E4right4"/>
    </vehicle>
    <vehicle id="left1_right3.0" depart="0.00" color="white">
        <route edges="left1A1 A1B1 B1B2 B2B3 B3C3 C3D3 D3E3 E3right3"/>
    </vehicle>
    <vehicle id="left3_right1.0" depart="0.00" color="255,150,0">
        <route edges="left3A3 A3A2 A2B2 B2B1 B1C1 C1D1 D1E1 E1right1"/>
    </vehicle>
    <vehicle id="left4_right0.0" depart="0.00" color="yellow">
        <route edges="left4A4 A4B4 B4B3 B3B2 B2B1 B1C1 C1D1 D1D0 D0E0 E0right0"/>
    </vehicle>
    <vehicle id="bottom0_top4.1" depart="3.74" color="red">
        <route edges="bottom0A0 A0A1 A1A2 A2B2 B2B3 B3B4 B4C4 C4D4 D4E4 E4top4"/>
    </vehicle>
    <vehicle id="bottom4_top0.1" depart="3.74" color="blue">
        <route edges="bottom4E0 E0E1 E1D1 D1C1 C1C2 C2B2 B2A2 A2A3 A3A4 A4top0"/>
    </vehicle>
    <vehicle id="left0_right4.1" depart="3.74" color="green">
        <route edges="left0A0 A0B0 B0C0 C0D0 D0D1 D1D2 D2E2 E2E3 E3E4 E4right4"/>
    </vehicle>
    <vehicle id="left4_right0.1" depart="3.74" color="yellow">
        <route edges="left4A4 A4A3 A3B3 B3C3 C3C2 C2C1 C1C0 C0D0 D0E0 E0right0"/>
    </vehicle>
    <vehicle id="bottom1_top3.1" depart="4.40" color="cyan">
        <route edges="bottom1B0 B0B1 B1C1 C1C2 C2C3 C3C4 C4D4 D4top3"/>
    </vehicle>
    <vehicle id="bottom3_top1.1" depart="4.40" color="magenta">
        <route edges="bottom3D0 D0C0 C0C1 C1B1 B1B2 B2B3 B3B4 B4top1"/>
    </vehicle>
    <vehicle id="left1_right3.1" depart="4.40" color="white">
        <route edges="left1A1 A1A2 A2B2 B2C2 C2C3 C3D3 D3E3 E3right3"/>
    </vehicle>
    <vehicle id="left3_right1.1" depart="4.40" color="255,150,0">
        <route edges="left3A3 A3B3 B3C3 C3D3 D3E3 E3E2 E2E1 E1right1"/>
    </vehicle>
    <vehicle id="bottom0_top4.2" depart="7.48" color="red">
        <route edges="bottom0A0 A0B0 B0C0 C0D0 D0D1 D1D2 D2E2 E2E3 E3E4 E4top4"/>
    </vehicle>
    <vehicle id="bottom4_top0.2" depart="7.48" color="blue">
        <route edges="bottom4E0 E0E1 E1E2 E2D2 D2C2 C2B2 B2B3 B3A3 A3A4 A4top0"/>
    </vehicle>
    <vehicle id="left0_right4.2" depart="7.48" color="green">
        <route edges="left0A0 A0B0 B0B1 B1C1 C1D1 D1E1 E1E2 E2E3 E3E4 E4right4"/>
    </vehicle>
    <vehicle id="left4_right0.2" depart="7.48" color="yellow">
        <route edges="left4A4 A4A3 A3B3 B3C3 C3C2 C2C1 C1C0 C0D0 D0E0 E0right0"/>
    </vehicle>
    <vehicle id="bottom1_top3.2" depart="8.79" color="cyan">
        <route edges="bottom1B0 B0C0 C0D0 D0D1 D1D2 D2D3 D3D4 D4top3"/>
    </vehicle>
    <vehicle id="bottom3_top1.2" depart="8.79" color="magenta">
        <route edges="bottom3D0 D0D1 D1D2 D2C2 C2C3 C3C4 C4B4 B4top1"/>
    </vehicle>
    <vehicle id="left1_right3.2" depart="8.79" color="white">
        <route edges="left1A1 A1B1 B1B2 B2B3 B3C3 C3D3 D3E3 E3right3"/>
    </vehicle>
    <vehicle id="left3_right1.2" depart="8.79" color="255,150,0">
        <route edges="left3A3 A3B3 B3C3 C3C2 C2D2 D2E2 E2E1 E1right1"/>
    </vehicle>
    <vehicle id="bottom0_top4.3" depart="11.21" color="red">
        <route edges="bottom0A0 A0A1 A1B1 B1B2 B2B3 B3B4 B4C4 C4D4 D4E4 E4top4"/>
    </vehicle>
    <vehicle id="bottom4_top0.3" depart="11.21" color="blue">
        <route edges="bottom4E0 E0E1 E1D1 D1C1 C1C2 C2B2 B2A2 A2A3 A3A4 A4top0"/>
    </vehicle>
    <vehicle id="left0_right4.3" depart="11.21" color="green">
        <route edges="left0A0 A0A1 A1B1 B1B2 B2B3 B3B4 B4C4 C4D4 D4E4 E4right4"/>
    </vehicle>
    <vehicle id="left4_right0.3" depart="11.21" color="yellow">
        <route edges="left4A4 A4B4 B4C4 C4D4 D4E4 E4E3 E3E2 E2E1 E1E0 E0right0"/>
    </vehicle>
    <vehicle id="bottom1_top3.3" depart="13.19" color="cyan">
        <route edges="bottom1B0 B0B1 B1C1 C1C2 C2C3 C3C4 C4D4 D4top3"/>
    </vehicle>
    <vehicle id="bottom3_top1.3" depart="13.19" color="magenta">
        <route edges="bottom3D0 D0C0 C0C1 C1C2 C2C3 C3C4 C4B4 B4top1"/>
    </vehicle>
    <vehicle id="left1_right3.3" depart="13.19" color="white">
        <route edges="left1A1 A1B1 B1B2 B2B3 B3C3 C3D3 D3E3 E3right3"/>
    </vehicle>
    <vehicle id="left3_right1.3" depart="13.19" color="255,150,0">
        <route edges="left3A3 A3B3 B3C3 C3D3 D3D2 D2D1 D1E1 E1right1"/>
    </vehicle>
    <vehicle id="bottom0_top4.4" depart="14.95" color="red">
        <route edges="bottom0A0 A0B0 B0B1 B1C1 C1C2 C2D2 D2E2 E2E3 E3E4 E4top4"/>
    </vehicle>
    <vehicle id="bottom4_top0.4" depart="14.95" color="blue">
        <route edges="bottom4E0 E0E1 E1E2 E2D2 D2C2 C2B2 B2A2 A2A3 A3A4 A4top0"/>
    </vehicle>
    <vehicle id="left0_right4.4" depart="14.95" color="green">
        <route edges="left0A0 A0A1 A1B1 B1B2 B2B3 B3B4 B4C4 C4D4 D4E4 E4right4"/>
    </vehicle>
    <vehicle id="left4_right0.4" depart="14.95" color="yellow">
        <route edges="left4A4 A4B4 B4C4 C4D4 D4E4 E4E3 E3E2 E2E1 E1E0 E0right0"/>
    </vehicle>
    <vehicle id="bottom1_top3.4" depart="17.58" color="cyan">
        <route edges="bottom1B0 B0B1 B1B2 B2C2 C2C3 C3C4 C4D4 D4top3"/>
    </vehicle>
    <vehicle id="bottom3_top1.4" depart="17.58" color="magenta">
        <route edges="bottom3D0 D0D1 D1D2 D2C2 C2C3 C3C4 C4B4 B4top1"/>
    </vehicle>
    <vehicle id="left1_right3.4" depart="17.58" color="white">
        <route edges="left1A1 A1B1 B1B2 B2B3 B3C3 C3D3 D3E3 E3right3"/>
    </vehicle>
    <vehicle id="left3_right1.4" depart="17.58" color="255,150,0">
        <route edges="left3A3 A3B3 B3C3 C3D3 D3E3 E3E2 E2E1 E1right1"/>
    </vehicle>
    <vehicle id="bottom0_top4.5" depart="18.69" color="red">
        <route edges="bottom0A0 A0B0 B0B1 B1C1 C1D1 D1E1 E1E2 E2E3 E3E4 E4top4"/>
    </vehicle>
    <vehicle id="bottom4_top0.5" depart="18.69" color="blue">
        <route edges="bottom4E0 E0E1 E1E2 E2D2 D2C2 C2B2 B2B3 B3A3 A3A4 A4top0"/>
    </vehicle>
    <vehicle id="left0_right4.5" depart="18.69" color="green">
        <route edges="left0A0 A0B0 B0B1 B1C1 C1D1 D1E1 E1E2 E2E3 E3E4 E4right4"/>
    </vehicle>
    <vehicle id="left4_right0.5" depart="18.69" color="yellow">
        <route edges="left4A4 A4A3 A3A2 A2B2 B2B1 B1C1 C1D1 D1E1 E1E0 E0right0"/>
    </vehicle>
    <vehicle id="bottom1_top3.5" depart="21.98" color="cyan">
        <route edges="bottom1B0 B0C0 C0D0 D0D1 D1D2 D2D3 D3D4 D4top3"/>
    </vehicle>
    <vehicle id="bottom3_top1.5" depart="21.98" color="magenta">
        <route edges="bottom3D0 D0C0 C0C1 C1C2 C2C3 C3C4 C4B4 B4top1"/>
    </vehicle>
    <vehicle id="left1_right3.5" depart="21.98" color="white">
        <route edges="left1A1 A1A2 A2A3 A3B3 B3C3 C3D3 D3E3 E3right3"/>
    </vehicle>
    <vehicle id="left3_right1.5" depart="21.98" color="255,150,0">
        <route edges="left3A3 A3A2 A2B2 B2B1 B1C1 C1D1 D1E1 E1right1"/>
    </vehicle>
    <vehicle id="bottom0_top4.6" depart="22.43" color="red">
        <route edges="bottom0A0 A0B0 B0C0 C0D0 D0D1 D1D2 D2E2 E2E3 E3E4 E4top4"/>
    </vehicle>
    <vehicle id="bottom4_top0.6" depart="22.43" color="blue">
        <route edges="bottom4E0 E0E1 E1D1 D1C1 C1C2 C2B2 B2A2 A2A3 A3A4 A4top0"/>
    </vehicle>
    <vehicle id="left0_right4.6" depart="22.43" color="green">
        <route edges="left0A0 A0B0 B0B1 B1C1 C1C2 C2D2 D2E2 E2E3 E3E4 E4right4"/>
    </vehicle>
    <vehicle id="left4_right0.6" depart="22.43" color="yellow">
        <route edges="left4A4 A4B4 B4C4 C4C3 C3D3 D3D2 D2D1 D1D0 D0E0 E0right0"/>
    </vehicle>
    <vehicle id="bottom0_top4.7" depart="26.17" color="red">
        <route edges="bottom0A0 A0B0 B0B1 B1C1 C1C2 C2D2 D2E2 E2E3 E3E4 E4top4"/>
    </vehicle>
    <vehicle id="bottom4_top0.7" depart="26.17" color="blue">
        <route edges="bottom4E0 E0E1 E1E2 E2D2 D2C2 C2B2 B2B3 B3A3 A3A4 A4top0"/>
    </vehicle>
    <vehicle id="left0_right4.7" depart="26.17" color="green">
        <route edges="left0A0 A0A1 A1B1 B1B2 B2B3 B3B4 B4C4 C4D4 D4E4 E4right4"/>
    </vehicle>
    <vehicle id="left4_right0.7" depart="26.17" color="yellow">
        <route edges="left4A4 A4B4 B4C4 C4D4 D4E4 E4E3 E3E2 E2E1 E1E0 E0right0"/>
    </vehicle>
    <vehicle id="bottom1_top3.6" depart="26.37" color="cyan">
        <route edges="bottom1B0 B0B1 B1C1 C1C2 C2C3 C3C4 C4D4 D4top3"/>
    </vehicle>
    <vehicle id="bottom3_top1.6" depart="26.37" color="magenta">
        <route edges="bottom3D0 D0C0 C0C1 C1C2 C2C3 C3C4 C4B4 B4top1"/>
    </vehicle>
    <vehicle id="left1_right3.6" depart="26.37" color="white">
        <route edges="left1A1 A1B1 B1B2 B2B3 B3C3 C3D3 D3E3 E3right3"/>
    </vehicle>
    <vehicle id="left3_right1.6" depart="26.37" color="255,150,0">
        <route edges="left3A3 A3A2 A2B2 B2C2 C2D2 D2E2 E2E1 E1right1"/>
    </vehicle>
    <vehicle id="bottom0_top4.8" depart="29.90" color="red">
        <route edges="bottom0A0 A0B0 B0C0 C0D0 D0D1 D1D2 D2E2 E2E3 E3E4 E4top4"/>
    </vehicle>
    <vehicle id="bottom4_top0.8" depart="29.90" color="blue">
        <route edges="bottom4E0 E0E1 E1E2 E2E3 E3D3 D3D4 D4C4 C4B4 B4A4 A4top0"/>
    </vehicle>
    <vehicle id="left0_right4.8" depart="29.90" color="green">
        <route edges="left0A0 A0B0 B0C0 C0D0 D0D1 D1D2 D2E2 E2E3 E3E4 E4right4"/>
    </vehicle>
    <vehicle id="left4_right0.8" depart="29.90" color="yellow">
        <route edges="left4A4 A4B4 B4C4 C4D4 D4E4 E4E3 E3E2 E2E1 E1E0 E0right0"/>
    </vehicle>
    <vehicle id="bottom1_top3.7" depart="30.77" color="cyan">
        <route edges="bottom1B0 B0B1 B1B2 B2B3 B3B4 B4C4 C4D4 D4top3"/>
    </vehicle>
    <vehicle id="bottom3_top1.7" depart="30.77" color="magenta">
        <route edges="bottom3D0 D0C0 C0C1 C1C2 C2C3 C3C4 C4B4 B4top1"/>
    </vehicle>
    <vehicle id="left1_right3.7" depart="30.77" color="white">
        <route edges="left1A1 A1B1 B1C1 C1D1 D1E1 E1E2 E2E3 E3right3"/>
    </vehicle>
    <vehicle id="left3_right1.7" depart="30.77" color="255,150,0">
        <route edges="left3A3 A3B3 B3C3 C3D3 D3E3 E3E2 E2E1 E1right1"/>
    </vehicle>
    <vehicle id="bottom0_top4.9" depart="33.64" color="red">
        <route edges="bottom0A0 A0B0 B0C0 C0D0 D0D1 D1D2 D2E2 E2E3 E3E4 E4top4"/>
    </vehicle>
    <vehicle id="bottom4_top0.9" depart="33.64" color="blue">
        <route edges="bottom4E0 E0E1 E1E2 E2D2 D2C2 C2B2 B2B3 B3A3 A3A4 A4top0"/>
    </vehicle>
    <vehicle id="left0_right4.9" depart="33.64" color="green">
        <route edges="left0A0 A0B0 B0B1 B1C1 C1D1 D1E1 E1E2 E2E3 E3E4 E4right4"/>
    </vehicle>
    <vehicle id="left4_right0.9" depart="33.64" color="yellow">
        <route edges="left4A4 A4B4 B4C4 C4D4 D4E4 E4E3 E3E2 E2E1 E1E0 E0right0"/>
    </vehicle>
    <vehicle id="bottom1_top3.8" depart="35.16" color="cyan">
        <route edges="bottom1B0 B0C0 C0D0 D0D1 D1D2 D2D3 D3D4 D4top3"/>
    </vehicle>
    <vehicle id="bottom3_top1.8" depart="35.16" color="magenta">
        <route edges="bottom3D0 D0C0 C0C1 C1C2 C2C3 C3C4 C4B4 B4top1"/>
    </vehicle>
    <vehicle id="left1_right3.8" depart="35.16" color="white">
        <route edges="left1A1 A1A2 A2A3 A3B3 B3C3 C3D3 D3E3 E3right3"/>
    </vehicle>
    <vehicle id="left3_right1.8" depart="35.16" color="255,150,0">
        <route edges="left3A3 A3B3 B3C3 C3D3 D3E3 E3E2 E2E1 E1right1"/>
    </vehicle>
    <vehicle id="bottom0_top4.10" depart="37.38" color="red">
        <route edges="bottom0A0 A0B0 B0C0 C0D0 D0D1 D1D2 D2E2 E2E3 E3E4 E4top4"/>
    </vehicle>
    <vehicle id="bottom4_top0.10" depart="37.38" color="blue">
        <route edges="bottom4E0 E0E1 E1E2 E2D2 D2C2 C2B2 B2A2 A2A3 A3A4 A4top0"/>
    </vehicle>
    <vehicle id="left0_right4.10" depart="37.38" color="green">
        <route edges="left0A0 A0B0 B0B1 B1C1 C1C2 C2D2 D2E2 E2E3 E3E4 E4right4"/>
    </vehicle>
    <vehicle id="left4_right0.10" depart="37.38" color="yellow">
        <route edges="left4A4 A4B4 B4C4 C4D4 D4E4 E4E3 E3E2 E2E1 E1E0 E0right0"/>
    </vehicle>
    <vehicle id="bottom1_top3.9" depart="39.56" color="cyan">
        <route edges="bottom1B0 B0B1 B1B2 B2B3 B3B4 B4C4 C4D4 D4top3"/>
    </vehicle>
    <vehicle id="bottom3_top1.9" depart="39.56" color="magenta">
        <route edges="bottom3D0 D0C0 C0C1 C1C2 C2C3 C3C4 C4B4 B4top1"/>
    </vehicle>
    <vehicle id="left1_right3.9" depart="39.56" color="white">
        <route edges="left1A1 A1A2 A2B2 B2C2 C2C3 C3D3 D3E3 E3right3"/>
    </vehicle>
    <vehicle id="left3_right1.9" depart="39.56" color="255,150,0">
        <route edges="left3A3 A3B3 B3C3 C3D3 D3D2 D2D1 D1E1 E1right1"/>
    </vehicle>
    <vehicle id="bottom0_top4.11" depart="41.12" color="red">
        <route edges="bottom0A0 A0A1 A1A2 A2B2 B2B3 B3B4 B4C4 C4D4 D4E4 E4top4"/>
    </vehicle>
    <vehicle id="bottom4_top0.11" depart="41.12" color="blue">
        <route edges="bottom4E0 E0D0 D0D1 D1D2 D2C2 C2B2 B2A2 A2A3 A3A4 A4top0"/>
    </vehicle>
    <vehicle id="left0_right4.11" depart="41.12" color="green">
        <route edges="left0A0 A0A1 A1A2 A2B2 B2B3 B3B4 B4C4 C4D4 D4E4 E4right4"/>
    </vehicle>
    <vehicle id="left4_right0.11" depart="41.12" color="yellow">
        <route edges="left4A4 A4B4 B4C4 C4C3 C3D3 D3D2 D2D1 D1D0 D0E0 E0right0"/>
    </vehicle>
    <vehicle id="bottom1_top3.10" depart="43.95" color="cyan">
        <route edges="bottom1B0 B0B1 B1C1 C1C2 C2C3 C3C4 C4D4 D4top3"/>
    </vehicle>
    <vehicle id="bottom3_top1.10" depart="43.95" color="magenta">
        <route edges="bottom3D0 D0D1 D1D2 D2C2 C2C3 C3C4 C4B4 B4top1"/>
    </vehicle>
    <vehicle id="left1_right3.10" depart="43.95" color="white">
        <route edges="left1A1 A1B1 B1B2 B2B3 B3C3 C3D3 D3E3 E3right3"/>
    </vehicle>
    <vehicle id="left3_right1.10" depart="43.95" color="255,150,0">
        <route edges="left3A3 A3A2 A2B2 B2C2 C2D2 D2E2 E2E1 E1right1"/>
    </vehicle>
    <vehicle id="bottom0_top4.12" depart="44.86" color="red">
        <route edges="bottom0A0 A0B0 B0C0 C0D0 D0D1 D1D2 D2E2 E2E3 E3E4 E4top4"/>
    </vehicle>
    <vehicle id="bottom4_top0.12" depart="44.86" color="blue">
        <route edges="bottom4E0 E0D0 D0D1 D1D2 D2C2 C2B2 B2A2 A2A3 A3A4 A4top0"/>
    </vehicle>
    <vehicle id="left0_right4.12" depart="44.86" color="green">
        <route edges="left0A0 A0B0 B0C0 C0D0 D0D1 D1D2 D2E2 E2E3 E3E4 E4right4"/>
    </vehicle>
    <vehicle id="left4_right0.12" depart="44.86" color="yellow">
        <route edges="left4A4 A4A3 A3B3 B3C3 C3C2 C2C1 C1C0 C0D0 D0E0 E0right0"/>
    </vehicle>
    <vehicle id="bottom1_top3.11" depart="48.35" color="cyan">
        <route edges="bottom1B0 B0B1 B1C1 C1C2 C2C3 C3C4 C4D4 D4top3"/>
    </vehicle>
    <vehicle id="bottom3_top1.11" depart="48.35" color="magenta">
        <route edges="bottom3D0 D0D1 D1D2 D2D3 D3D4 D4C4 C4B4 B4top1"/>
    </vehicle>
    <vehicle id="left1_right3.11" depart="48.35" color="white">
        <route edges="left1A1 A1A2 A2B2 B2C2 C2C3 C3D3 D3E3 E3right3"/>
    </vehicle>
    <vehicle id="left3_right1.11" depart="48.35" color="255,150,0">
        <route edges="left3A3 A3B3 B3C3 C3D3 D3D2 D2D1 D1E1 E1right1"/>
    </vehicle>
    <vehicle id="bottom0_top4.13" depart="48.59" color="red">
        <route edges="bottom0A0 A0B0 B0B1 B1C1 C1C2 C2D2 D2E2 E2E3 E3E4 E4top4"/>
    </vehicle>
    <vehicle id="bottom4_top0.13" depart="48.59" color="blue">
        <route edges="bottom4E0 E0D0 D0D1 D1D2 D2C2 C2B2 B2A2 A2A3 A3A4 A4top0"/>
    </vehicle>
    <vehicle id="left0_right4.13" depart="48.59" color="green">
        <route edges="left0A0 A0A1 A1B1 B1B2 B2B3 B3B4 B4C4 C4D4 D4E4 E4right4"/>
    </vehicle>
    <vehicle id="left4_right0.13" depart="48.59" color="yellow">
        <route edges="left4A4 A4A3 A3A2 A2B2 B2B1 B1C1 C1D1 D1E1 E1E0 E0right0"/>
    </vehicle>
    <vehicle id="bottom0_top4.14" depart="52.33" color="red">
        <route edges="bottom0A0 A0A1 A1B1 B1B2 B2B3 B3B4 B4C4 C4D4 D4E4 E4top4"/>
    </vehicle>
    <vehicle id="bottom4_top0.14" depart="52.33" color="blue">
        <route edges="bottom4E0 E0D0 D0D1 D1D2 D2C2 C2B2 B2A2 A2A3 A3A4 A4top0"/>
    </vehicle>
    <vehicle id="left0_right4.14" depart="52.33" color="green">
        <route edges="left0A0 A0B0 B0B1 B1C1 C1D1 D1E1 E1E2 E2E3 E3E4 E4right4"/>
    </vehicle>
    <vehicle id="left4_right0.14" depart="52.33" color="yellow">
        <route edges="left4A4 A4B4 B4C4 C4D4 D4E4 E4E3 E3E2 E2E1 E1E0 E0right0"/>
    </vehicle>
    <vehicle id="bottom1_top3.12" depart="52.74" color="cyan">
        <route edges="bottom1B0 B0C0 C0C1 C1D1 D1D2 D2D3 D3D4 D4top3"/>
    </vehicle>
    <vehicle id="bottom3_top1.12" depart="52.74" color="magenta">
        <route edges="bottom3D0 D0C0 C0C1 C1B1 B1B2 B2B3 B3B4 B4top1"/>
    </vehicle>
    <vehicle id="left1_right3.12" depart="52.74" color="white">
        <route edges="left1A1 A1A2 A2A3 A3B3 B3C3 C3D3 D3E3 E3right3"/>
    </vehicle>
    <vehicle id="left3_right1.12" depart="52.74" color="255,150,0">
        <route edges="left3A3 A3B3 B3C3 C3C2 C2D2 D2E2 E2E1 E1right1"/>
    </vehicle>
    <vehicle id="bottom0_top4.15" depart="56.07" color="red">
        <route edges="bottom0A0 A0B0 B0B1 B1C1 C1C2 C2D2 D2E2 E2E3 E3E4 E4top4"/>
    </vehicle>
    <vehicle id="bottom4_top0.15" depart="56.07" color="blue">
        <route edges="bottom4E0 E0E1 E1E2 E2D2 D2C2 C2B2 B2A2 A2A3 A3A4 A4top0"/>
    </vehicle>
    <vehicle id="left0_right4.15" depart="56.07" color="green">
        <route edges="left0A0 A0B0 B0B1 B1C1 C1C2 C2D2 D2E2 E2E3 E3E4 E4right4"/>
    </vehicle>
    <vehicle id="left4_right0.15" depart="56.07" color="yellow">
        <route edges="left4A4 A4B4 B4C4 C4D4 D4E4 E4E3 E3E2 E2E1 E1E0 E0right0"/>
    </vehicle>
    <vehicle id="bottom1_top3.13" depart="57.14" color="cyan">
        <route edges="bottom1B0 B0C0 C0C1 C1D1 D1D2 D2D3 D3D4 D4top3"/>
    </vehicle>
    <vehicle id="bottom3_top1.13" depart="57.14" color="magenta">
        <route edges="bottom3D0 D0C0 C0C1 C1B1 B1B2 B2B3 B3B4 B4top1"/>
    </vehicle>
    <vehicle id="left1_right3.13" depart="57.14" color="white">
        <route edges="left1A1 A1B1 B1C1 C1D1 D1E1 E1E2 E2E3 E3right3"/>
    </vehicle>
    <vehicle id="left3_right1.13" depart="57.14" color="255,150,0">
        <route edges="left3A3 A3B3 B3C3 C3D3 D3D2 D2D1 D1E1 E1right1"/>
    </vehicle>
    <vehicle id="bottom0_top4.16" depart="59.81" color="red">
        <route edges="bottom0A0 A0A1 A1A2 A2B2 B2B3 B3B4 B4C4 C4D4 D4E4 E4top4"/>
    </vehicle>
    <vehicle id="bottom4_top0.16" depart="59.81" color="blue">
        <route edges="bottom4E0 E0E1 E1E2 E2D2 D2C2 C2B2 B2A2 A2A3 A3A4 A4top0"/>
    </vehicle>
    <vehicle id="left0_right4.16" depart="59.81" color="green">
        <route edges="left0A0 A0B0 B0B1 B1C1 C1D1 D1E1 E1E2 E2E3 E3E4 E4right4"/>
    </vehicle>
    <vehicle id="left4_right0.16" depart="59.81" color="yellow">
        <route edges="left4A4 A4A3 A3B3 B3C3 C3C2 C2C1 C1C0 C0D0 D0E0 E0right0"/>
    </vehicle>
    <vehicle id="bottom1_top3.14" depart="61.53" color="cyan">
        <route edges="bottom1B0 B0B1 B1C1 C1C2 C2C3 C3C4 C4D4 D4top3"/>
    </vehicle>
    <vehicle id="bottom3_top1.14" depart="61.53" color="magenta">
        <route edges="bottom3D0 D0D1 D1D2 D2D3 D3D4 D4C4 C4B4 B4top1"/>
    </vehicle>
    <vehicle id="left1_right3.14" depart="61.53" color="white">
        <route edges="left1A1 A1B1 B1B2 B2B3 B3C3 C3D3 D3E3 E3right3"/>
    </vehicle>
    <vehicle id="left3_right1.14" depart="61.53" color="255,150,0">
        <route edges="left3A3 A3A2 A2B2 B2C2 C2D2 D2E2 E2E1 E1right1"/>
    </vehicle>
    <vehicle id="bottom0_top4.17" depart="63.55" color="red">
        <route edges="bottom0A0 A0B0 B0B1 B1C1 C1D1 D1E1 E1E2 E2E3 E3E4 E4top4"/>
    </vehicle>
    <vehicle id="bottom4_top0.17" depart="63.55" color="blue">
        <route edges="bottom4E0 E0E1 E1E2 E2E3 E3D3 D3D4 D4C4 C4B4 B4A4 A4top0"/>
    </vehicle>
    <vehicle id="left0_right4.17" depart="63.55" color="green">
        <route edges="left0A0 A0B0 B0B1 B1C1 C1D1 D1E1 E1E2 E2E3 E3E4 E4right4"/>
    </vehicle>
    <vehicle id="left4_right0.17" depart="63.55" color="yellow">
        <route edges="left4A4 A4B4 B4C4 C4C3 C3D3 D3D2 D2D1 D1D0 D0E0 E0right0"/>
    </vehicle>
    <vehicle id="bottom1_top3.15" depart="65.93" color="cyan">
        <route edges="bottom1B0 B0B1 B1B2 B2B3 B3B4 B4C4 C4D4 D4top3"/>
    </vehicle>
    <vehicle id="bottom3_top1.15" depart="65.93" color="magenta">
        <route edges="bottom3D0 D0D1 D1D2 D2C2 C2C3 C3C4 C4B4 B4top1"/>
    </vehicle>
    <vehicle id="left1_right3.15" depart="65.93" color="white">
        <route edges="left1A1 A1A2 A2B2 B2C2 C2C3 C3D3 D3E3 E3right3"/>
    </vehicle>
    <vehicle id="left3_right1.15" depart="65.93" color="255,150,0">
        <route edges="left3A3 A3B3 B3C3 C3C2 C2D2 D2E2 E2E1 E1right1"/>
    </vehicle>
    <vehicle id="bottom0_top4.18" depart="67.28" color="red">
        <route edges="bottom0A0 A0A1 A1A2 A2B2 B2B3 B3B4 B4C4 C4D4 D4E4 E4top4"/>
    </vehicle>
    <vehicle id="bottom4_top0.18" depart="67.28" color="blue">
        <route edges="bottom4E0 E0E1 E1E2 E2D2 D2C2 C2B2 B2A2 A2A3 A3A4 A4top0"/>
    </vehicle>
    <vehicle id="left0_right4.18" depart="67.28" color="green">
        <route edges="left0A0 A0A1 A1B1 B1B2 B2B3 B3B4 B4C4 C4D4 D4E4 E4right4"/>
    </vehicle>
    <vehicle id="left4_right0.18" depart="67.28" color="yellow">
        <route edges="left4A4 A4B4 B4C4 C4C3 C3D3 D3D2 D2D1 D1D0 D0E0 E0right0"/>
    </vehicle>
    <vehicle id="bottom1_top3.16" depart="70.32" color="cyan">
        <route edges="bottom1B0 B0B1 B1B2 B2C2 C2C3 C3C4 C4D4 D4top3"/>
    </vehicle>
    <vehicle id="bottom3_top1.16" depart="70.32" color="magenta">
        <route edges="bottom3D0 D0D1 D1D2 D2D3 D3D4 D4C4 C4B4 B4top1"/>
    </vehicle>
    <vehicle id="left1_right3.16" depart="70.32" color="white">
        <route edges="left1A1 A1A2 A2B2 B2C2 C2C3 C3D3 D3E3 E3right3"/>
    </vehicle>
    <vehicle id="left3_right1.16" depart="70.32" color="255,150,0">
        <route edges="left3A3 A3B3 B3C3 C3D3 D3E3 E3E2 E2E1 E1right1"/>
    </vehicle>
    <vehicle id="bottom0_top4.19" depart="71.02" color="red">
        <route edges="bottom0A0 A0A1 A1B1 B1B2 B2B3 B3B4 B4C4 C4D4 D4E4 E4top4"/>
    </vehicle>
    <vehicle id="bottom4_top0.19" depart="71.02" color="blue">
        <route edges="bottom4E0 E0E1 E1E2 E2D2 D2C2 C2B2 B2B3 B3A3 A3A4 A4top0"/>
    </vehicle>
    <vehicle id="left0_right4.19" depart="71.02" color="green">
        <route edges="left0A0 A0A1 A1A2 A2B2 B2B3 B3B4 B4C4 C4D4 D4E4 E4right4"/>
    </vehicle>
    <vehicle id="left4_right0.19" depart="71.02" color="yellow">
        <route edges="left4A4 A4A3 A3B3 B3C3 C3C2 C2C1 C1C0 C0D0 D0E0 E0right0"/>
    </vehicle>
    <vehicle id="bottom1_top3.17" depart="74.72" color="cyan">
        <route edges="bottom1B0 B0C0 C0D0 D0D1 D1D2 D2D3 D3D4 D4top3"/>
    </vehicle>
    <vehicle id="bottom3_top1.17" depart="74.72" color="magenta">
        <route edges="bottom3D0 D0D1 D1D2 D2C2 C2C3 C3C4 C4B4 B4top1"/>
    </vehicle>
    <vehicle id="left1_right3.17" depart="74.72" color="white">
        <route edges="left1A1 A1B1 B1B2 B2C2 C2D2 D2D3 D3E3 E3right3"/>
    </vehicle>
    <vehicle id="left3_right1.17" depart="74.72" color="255,150,0">
        <route edges="left3A3 A3B3 B3C3 C3D3 D3D2 D2D1 D1E1 E1right1"/>
    </vehicle>
    <vehicle id="bottom0_top4.20" depart="74.76" color="red">
        <route edges="bottom0A0 A0B0 B0B1 B1C1 C1D1 D1E1 E1E2 E2E3 E3E4 E4top4"/>
    </vehicle>
    <vehicle id="bottom4_top0.20" depart="74.76" color="blue">
        <route edges="bottom4E0 E0E1 E1E2 E2D2 D2C2 C2B2 B2A2 A2A3 A3A4 A4top0"/>
    </vehicle>
    <vehicle id="left0_right4.20" depart="74.76" color="green">
        <route edges="left0A0 A0A1 A1A2 A2B2 B2B3 B3B4 B4C4 C4D4 D4E4 E4right4"/>
    </vehicle>
    <vehicle id="left4_right0.20" depart="74.76" color="yellow">
        <route edges="left4A4 A4A3 A3B3 B3C3 C3C2 C2C1 C1C0 C0D0 D0E0 E0right0"/>
    </vehicle>
    <vehicle id="bottom0_top4.21" depart="78.50" color="red">
        <route edges="bottom0A0 A0B0 B0C0 C0D0 D0D1 D1D2 D2E2 E2E3 E3E4 E4top4"/>
    </vehicle>
    <vehicle id="bottom4_top0.21" depart="78.50" color="blue">
        <route edges="bottom4E0 E0E1 E1E2 E2E3 E3D3 D3D4 D4C4 C4B4 B4A4 A4top0"/>
    </vehicle>
    <vehicle id="left0_right4.21" depart="78.50" color="green">
        <route edges="left0A0 A0A1 A1B1 B1B2 B2B3 B3B4 B4C4 C4D4 D4E4 E4right4"/>
    </vehicle>
    <vehicle id="left4_right0.21" depart="78.50" color="yellow">
        <route edges="left4A4 A4B4 B4C4 C4D4 D4E4 E4E3 E3E2 E2E1 E1E0 E0right0"/>
    </vehicle>
    <vehicle id="bottom1_top3.18" depart="79.11" color="cyan">
        <route edges="bottom1B0 B0C0 C0D0 D0D1 D1D2 D2D3 D3D4 D4top3"/>
    </vehicle>
    <vehicle id="bottom3_top1.18" depart="79.11" color="magenta">
        <route edges="bottom3D0 D0D1 D1D2 D2D3 D3D4 D4C4 C4B4 B4top1"/>
    </vehicle>
    <vehicle id="left1_right3.18" depart="79.11" color="white">
        <route edges="left1A1 A1A2 A2B2 B2C2 C2D2 D2E2 E2E3 E3right3"/>
    </vehicle>
    <vehicle id="left3_right1.18" depart="79.11" color="255,150,0">
        <route edges="left3A3 A3B3 B3C3 C3D3 D3D2 D2D1 D1E1 E1right1"/>
    </vehicle>
    <vehicle id="bottom0_top4.22" depart="82.24" color="red">
        <route edges="bottom0A0 A0A1 A1B1 B1B2 B2B3 B3B4 B4C4 C4D4 D4E4 E4top4"/>
    </vehicle>
    <vehicle id="bottom4_top0.22" depart="82.24" color="blue">
        <route edges="bottom4E0 E0E1 E1E2 E2E3 E3D3 D3D4 D4C4 C4B4 B4A4 A4top0"/>
    </vehicle>
    <vehicle id="left0_right4.22" depart="82.24" color="green">
        <route edges="left0A0 A0A1 A1B1 B1B2 B2B3 B3B4 B4C4 C4D4 D4E4 E4right4"/>
    </vehicle>
    <vehicle id="left4_right0.22" depart="82.24" color="yellow">
        <route edges="left4A4 A4B4 B4C4 C4C3 C3D3 D3D2 D2D1 D1D0 D0E0 E0right0"/>
    </vehicle>
    <vehicle id="bottom1_top3.19" depart="83.51" color="cyan">
        <route edges="bottom1B0 B0B1 B1C1 C1C2 C2C3 C3C4 C4D4 D4top3"/>
    </vehicle>
    <vehicle id="bottom3_top1.19" depart="83.51" color="magenta">
        <route edges="bottom3D0 D0D1 D1D2 D2D3 D3D4 D4C4 C4B4 B4top1"/>
    </vehicle>
    <vehicle id="left1_right3.19" depart="83.51" color="white">
        <route edges="left1A1 A1B1 B1B2 B2B3 B3C3 C3D3 D3E3 E3right3"/>
    </vehicle>
    <vehicle id="left3_right1.19" depart="83.51" color="255,150,0">
        <route edges="left3A3 A3B3 B3C3 C3D3 D3E3 E3E2 E2E1 E1right1"/>
    </vehicle>
    <vehicle id="bottom0_top4.23" depart="85.97" color="red">
        <route edges="bottom0A0 A0B0 B0C0 C0D0 D0D1 D1D2 D2E2 E2E3 E3E4 E4top4"/>
    </vehicle>
    <vehicle id="bottom4_top0.23" depart="85.97" color="blue">
        <route edges="bottom4E0 E0D0 D0D1 D1D2 D2C2 C2B2 B2A2 A2A3 A3A4 A4top0"/>
    </vehicle>
    <vehicle id="left0_right4.23" depart="85.97" color="green">
        <route edges="left0A0 A0B0 B0B1 B1C1 C1D1 D1E1 E1E2 E2E3 E3E4 E4right4"/>
    </vehicle>
    <vehicle id="left4_right0.23" depart="85.97" color="yellow">
        <route edges="left4A4 A4A3 A3B3 B3C3 C3C2 C2C1 C1C0 C0D0 D0E0 E0right0"/>
    </vehicle>
    <vehicle id="bottom1_top3.20" depart="87.90" color="cyan">
        <route edges="bottom1B0 B0B1 B1B2 B2C2 C2C3 C3C4 C4D4 D4top3"/>
    </vehicle>
    <vehicle id="bottom3_top1.20" depart="87.90" color="magenta">
        <route edges="bottom3D0 D0D1 D1D2 D2C2 C2C3 C3C4 C4B4 B4top1"/>
    </vehicle>
    <vehicle id="left1_right3.20" depart="87.90" color="white">
        <route edges="left1A1 A1B1 B1B2 B2C2 C2D2 D2D3 D3E3 E3right3"/>
    </vehicle>
    <vehicle id="left3_right1.20" depart="87.90" color="255,150,0">
        <route edges="left3A3 A3B3 B3C3 C3D3 D3E3 E3E2 E2E1 E1right1"/>
    </vehicle>
    <vehicle id="bottom0_top4.24" depart="89.71" color="red">
        <route edges="bottom0A0 A0A1 A1A2 A2B2 B2B3 B3B4 B4C4 C4D4 D4E4 E4top4"/>
    </vehicle>
    <vehicle id="bottom4_top0.24" depart="89.71" color="blue">
        <route edges="bottom4E0 E0E1 E1E2 E2D2 D2C2 C2B2 B2A2 A2A3 A3A4 A4top0"/>
    </vehicle>
    <vehicle id="left0_right4.24" depart="89.71" color="green">
        <route edges="left0A0 A0B0 B0B1 B1C1 C1C2 C2D2 D2E2 E2E3 E3E4 E4right4"/>
    </vehicle>